# ********************************************************************************
# *  Copyright: National ICT Australia, 2009, 2010                               *
# *  Developed at the ATP lab, Networked Systems research theme                  *
# *  Author(s): Yuriy Tselishchev                                                *
# *  This file is distributed under the terms in the attached LICENSE file.      *
# *  If you do not find this file, copies can be found by writing to:            *
# *                                                                              *
# *      NICTA, Locked Bag 9013, Alexandria, NSW 1435, Australia                 *
# *      Attention:  License Inquiry.                                            *
# *                                                                              *
# *******************************************************************************/

[General]

include ../Parameters/Castalia.ini

sim-time-limit = 600s


# -- GlobalFilter 

SN.globalFilter.applicationName = "RoomMonitoring"
SN.globalFilter.routingProtocolName = "MultipathRingsRouting"
SN.globalFilter.macProtocolName = "Mac802154"

# -- end GlobalFilter


# -- Physical Process
SN.physicalProcessName = "CustomizablePhysicalProcess"
SN.numPhysicalProcesses = 1
SN.physicalProcess[0].linearUpdate = false
SN.physicalProcess[0].numSources = 3
# time - pos_x - pos_y - value
SN.physicalProcess[0].source_0 = "0 10 10 200 ; 50 10 10 200 ; 100 10 10 200 ; 150 10 10 200; 200 10 10 200; 700 10 10 200"
SN.physicalProcess[0].source_1 = "0 50 10 200 ; 50 50 10 200 ; 100 50 10 200 ; 150 50 10 200; 200 50 10 200; 700 50 10 200"
SN.physicalProcess[0].source_2 = "0 90 10 200 ; 50 90 10 200 ; 100 90 10 200 ; 150 90 10 200; 200 90 10 200; 700 90 10 200"
SN.physicalProcess[0].collectTraceInfo = true
# -- 

# -- customPhysical Process 
SN.physicalProcess[0].multiplicative_k = 0.18
# --

SN.node[*].Communication.Radio.RadioParametersFile = "../Parameters/Radio/CC2420.txt"

SN.node[*].ApplicationName = "RoomMonitoring"
SN.node[0].Application.isSink = true
#SN.node[*].Application.reportDestination = "SINK"

# magic
SN.node[*].Application.reportDestination = "0"

# Not cumulative samples
SN.node[*].Application.sampleSize = 12
SN.node[*].Application.maxPayloadPacketSize = 12
SN.node[*].Application.reportTreshold = 10
SN.node[*].Application.averageInterval = 10

SN.node[*].Communication.RoutingProtocolName = "MultipathRingsRouting"
#SN.node[*].Communication.RoutingProtocolName = "BypassRouting"

# ---- Trace 
#SN.node[0].Application.collectTraceInfo = true
#SN.node[0].Communication.LocalFilter.collectTraceInfo = true
#SN.globalFilter.collectTraceInfo = true
#SN.adversary.collectTraceInfo = false
# ---- end Trace



SN.field_x = 100
SN.field_y = 20
SN.deployment = "[0]->center;[1..18]->6x3"
SN.numNodes = 19


#-----
SN.node[*].Communication.MACProtocolName = "Mac802154"
SN.node[0].Communication.MAC.isFFD = true
SN.node[0].Communication.MAC.isPANCoordinator = true
SN.node[*].Communication.MAC.phyDataRate = 250
SN.node[*].Communication.MAC.phyBitsPerSymbol = 4
#-----

#SN.node[*].Communication.MAC.MACSecActive = false


[Config drop-cluster-1]
SN.configurationFile = "attacks/drop-cluster-1.xml"
#SN.node[9].Communication.LocalFilter.collectTraceInfo = true
#SN.logger.collectTraceInfo = true
#SN.logger.logPacketDrop = true
#SN.logger.logCompromisedPacket = true


[Config change-cluster-1]
SN.configurationFile = "attacks/change-cluster-1.xml"

[Config destroy-cluster-1]
SN.configurationFile = "attacks/destroy-cluster-1.xml"

[Config disable-cluster-1]
SN.configurationFile = "attacks/disable-cluster-1.xml"

