[General]
repeat = 1
SN.attacksEvaluation = true
SN.deployment = "[0]->center;[1..18]->6x3"
SN.field_x = 100
SN.field_y = 20
SN.globalFilter.applicationName = "RoomMonitoring"
SN.globalFilter.macProtocolName = "Mac802154"
SN.globalFilter.routingProtocolName = "MultipathRingsRouting"
SN.node[*].Application.averageInterval = 10
SN.node[*].Application.maxPayloadPacketSize = 12
SN.node[*].Application.reportDestination = "0"
SN.node[*].Application.reportTreshold = 10
SN.node[*].Application.rng-0	 = 3
SN.node[*].Application.sampleSize = 12
SN.node[*].ApplicationName = "RoomMonitoring"
SN.node[*].Communication.MAC.MACSecActive = false
SN.node[*].Communication.MAC.phyBitsPerSymbol = 4
SN.node[*].Communication.MAC.phyDataRate = 250
SN.node[*].Communication.MAC.rng-0 = 4
SN.node[*].Communication.MAC.rng-1 = 5
SN.node[*].Communication.MACProtocolName = "Mac802154"
SN.node[*].Communication.Radio.RadioParametersFile = "../Parameters/Radio/CC2420.txt"
SN.node[*].Communication.Radio.rng-0 = 2
SN.node[*].Communication.RoutingProtocolName = "MultipathRingsRouting"
SN.node[*].MobilityManager.rng-0 = 0
SN.node[*].ResourceManager.rng-0 = 6
SN.node[*].SensorManager.rng-0	  = 7
SN.node[*].SensorManager.rng-1	  = 8
SN.node[0].Application.isSink = true
SN.node[0].Communication.MAC.isFFD = true
SN.node[0].Communication.MAC.isPANCoordinator = true
SN.numNodes = 19
SN.numPhysicalProcesses = 1
SN.physicalProcessName = "CustomizablePhysicalProcess"
SN.physicalProcess[*].rng-0 	 = 10
SN.physicalProcess[0].collectTraceInfo = true
SN.physicalProcess[0].linearUpdate = false
SN.physicalProcess[0].multiplicative_k = 0.18
SN.physicalProcess[0].numSources = 3
SN.physicalProcess[0].source_0 = "0 10 10 200 ; 50 10 10 200 ; 100 10 10 200 ; 150 10 10 200; 200 10 10 200; 700 10 10 200"
SN.physicalProcess[0].source_1 = "0 50 10 200 ; 50 50 10 200 ; 100 50 10 200 ; 150 50 10 200; 200 50 10 200; 700 50 10 200"
SN.physicalProcess[0].source_2 = "0 90 10 200 ; 50 90 10 200 ; 100 90 10 200 ; 150 90 10 200; 200 90 10 200; 700 90 10 200"
SN.wirelessChannel.rng-0 	 = 1
SN.wirelessChannel.rng-2 	 = 9
cmdenv-event-banners = false
cmdenv-express-mode = true
cmdenv-interactive = false
cmdenv-module-messages = true
cmdenv-performance-display = false
ned-path = ../../src
network = SN
num-rngs = 11
output-scalar-file = Castalia-statistics.sca
output-vector-file = Castalia-statistics.vec
sim-time-limit = 0s
